18

Au   0.00000000000   4.07800162449   4.07800162449
Au   0.00000000000   8.15600324898   4.07800162449
Au   0.00000000000   6.11700243674   6.11700243674
Au   0.00000000000   4.07800162449   8.15600324898
Au   0.00000000000   8.15600324898   8.15600324898
Au   2.03900081224   6.11700243674   4.07800162449
Au   2.03900081224   4.07800162449   6.11700243674
Au   2.03900081224   8.15600324898   6.11700243674
Au   2.03900081224   6.11700243674   8.15600324898
Au   4.07800162449   4.07800162449   4.07800162449
Au   4.07800162449   8.15600324898   4.07800162449
Au   4.07800162449   6.11700243674   6.11700243674
Au   4.07800162449   4.07800162449   8.15600324898
Au   4.07800162449   8.15600324898   8.15600324898
Au   6.11700243674   6.11700243674   4.07800162449
Au   6.11700243674   4.07800162449   6.11700243674
Au   6.11700243674   8.15600324898   6.11700243674
Au   6.11700243674   6.11700243674   8.15600324898
